<nodes>
    <node id="1" x="-250.0" y="0.0" />
    <node id="2" x="+250.0" y="0.0" />
    <node id="3" x="+500.0" y="0.0" />
    <node id="4" x="+125.0" y="+125.0"/>
    <node id="5" x="+125.0" y="-200.0" />
    <node id="6" x="+125.0" y="-201.0" />
</nodes>
