<edges>
    <edge from="1" id="1to2" to="2" />
    <edge from="2" id="out" to="3" />
    <edge from="4" id="4to5" to="5" />
    <edge from="5" id="out2" to="6" />
</edges>
